2
Coordinates from ORCA-job H2 E  -1.171045443003
  H      -5.987320      1.703850      0.000000
  H      -5.279510      1.720390      0.000000
2
Coordinates from ORCA-job H2 E  -1.171800991065
  H      -6.014544      1.703214      0.000000
  H      -5.252286      1.721026      0.000000
2
Coordinates from ORCA-job H2 E  -1.172008914805
  H      -6.006551      1.703401      0.000000
  H      -5.260279      1.720839      0.000000
2
Coordinates from ORCA-job H2 E  -1.172011679949
  H      -6.005472      1.703426      0.000000
  H      -5.261358      1.720814      0.000000
2
Coordinates from ORCA-job H2 E  -1.172011689978
  H      -6.005532      1.703424      0.000000
  H      -5.261298      1.720816      0.000000
