2
Coordinates from ORCA-job ph+ E -341.502733164314
  P      -4.074370      0.443350      0.000000
  H      -2.674830      0.281990      0.000000
2
Coordinates from ORCA-job ph+ E -341.502837244656
  P      -4.079646      0.443958      0.000000
  H      -2.669554      0.281382      0.000000
2
Coordinates from ORCA-job ph+ E -341.502855597784
  P      -4.082891      0.444332      0.000000
  H      -2.666309      0.281008      0.000000
2
Coordinates from ORCA-job ph+ E -341.502855627265
  P      -4.083022      0.444348      0.000000
  H      -2.666178      0.280992      0.000000
