2
Coordinates from ORCA-job ph+ E -341.503682737543
  P      -4.074370      0.443350      0.000000
  H      -2.674830      0.281990      0.000000
2
Coordinates from ORCA-job ph+ E -341.503802457105
  P      -4.080020      0.444001      0.000000
  H      -2.669180      0.281339      0.000000
2
Coordinates from ORCA-job ph+ E -341.503824171881
  P      -4.083558      0.444409      0.000000
  H      -2.665642      0.280931      0.000000
2
Coordinates from ORCA-job ph+ E -341.503824213199
  P      -4.083714      0.444427      0.000000
  H      -2.665486      0.280913      0.000000
