2
Coordinates from ORCA-job H2 E  -1.173721464959
  H      -5.987320      1.703850      0.000000
  H      -5.279510      1.720390      0.000000
2
Coordinates from ORCA-job H2 E  -1.174474111369
  H      -6.014417      1.703217      0.000000
  H      -5.252413      1.721023      0.000000
2
Coordinates from ORCA-job H2 E  -1.174677936333
  H      -6.006495      1.703402      0.000000
  H      -5.260335      1.720838      0.000000
2
Coordinates from ORCA-job H2 E  -1.174680643914
  H      -6.005427      1.703427      0.000000
  H      -5.261403      1.720813      0.000000
2
Coordinates from ORCA-job H2 E  -1.174680653546
  H      -6.005485      1.703426      0.000000
  H      -5.261345      1.720814      0.000000
