4
Coordinates from ORCA-job ph3+ E -342.763511661856
  P      -1.490012     -0.308925      0.276949
  H      -0.359741      0.412431     -0.094267
  H      -1.431247     -1.649104     -0.092018
  H      -2.680830      0.309527     -0.090664
4
Coordinates from ORCA-job ph3+ E -342.763567945592
  P      -1.489787     -0.309127      0.283158
  H      -0.358761      0.413708     -0.096326
  H      -1.431655     -1.650674     -0.094047
  H      -2.681627      0.310023     -0.092785
4
Coordinates from ORCA-job ph3+ E -342.763583085605
  P      -1.489488     -0.309405      0.289086
  H      -0.358455      0.414772     -0.098285
  H      -1.432191     -1.651669     -0.095968
  H      -2.681696      0.310232     -0.094832
4
Coordinates from ORCA-job ph3+ E -342.763583139743
  P      -1.489420     -0.309474      0.289283
  H      -0.358640      0.414860     -0.098347
  H      -1.432305     -1.651636     -0.096020
  H      -2.681465      0.310181     -0.094916
