4
Coordinates from ORCA-job ph3+ E -342.789288045833
  P      -1.490012     -0.308925      0.276949
  H      -0.359741      0.412431     -0.094267
  H      -1.431247     -1.649104     -0.092018
  H      -2.680830      0.309527     -0.090664
4
Coordinates from ORCA-job ph3+ E -342.789395736655
  P      -1.489983     -0.309024      0.277728
  H      -0.354774      0.415801     -0.094541
  H      -1.431082     -1.655132     -0.092257
  H      -2.685991      0.312285     -0.090929
4
Coordinates from ORCA-job ph3+ E -342.789415451224
  P      -1.489925     -0.309129      0.279109
  H      -0.351950      0.417848     -0.095008
  H      -1.431052     -1.658679     -0.092697
  H      -2.688904      0.313890     -0.091404
4
Coordinates from ORCA-job ph3+ E -342.789415592226
  P      -1.489899     -0.309162      0.279612
  H      -0.352031      0.417884     -0.095175
  H      -1.431096     -1.658665     -0.092859
  H      -2.688804      0.313873     -0.091578
